tools/germany_pcm_case_related/references/germany_network_lines_clean.csv
Line_id,FromBus,ToBus,Length_km,Voltage_kV,Capacity_MVA,R,X,NumParallel,Carrier,SourceDataset,Notes
merged_relation/1208415:c-380+1,B443,B473,9351.89,380,1698.103,0.280557,2.300565,1,,lines.csv,
merged_relation/14592471:b-380+1,B504,B583,41105.68,380,1698.103,1.23317,10.111997,1,,lines.csv,
merged_relation/14592735:c-380+1,B494,B435,9639.13,380,1698.103,0.289174,2.371226,1,,lines.csv,
merged_relation/14650605:b-220+1,B381,B363,5032.34,220,491.556,0.30194,1.514734,1,,lines.csv,
merged_relation/1636708:b-380+1,B639,B680,48729.98,380,1698.103,1.461899,11.987575,1,,lines.csv,
merged_relation/18799873:b-220+1,B21,B22,15548.03,220,491.556,0.932882,4.679957,1,,lines.csv,
merged_relation/3228400:b-380+1,B494,B428,34128.08,380,1698.103,1.023842,8.395508,1,,lines.csv,
merged_relation/3693986:c-380+1,B322,B633,12662.59,380,1698.103,0.379878,3.114997,1,,lines.csv,
merged_relation/3693986:e-380+2,B633,B365,4105.33,380,1698.103,0.12316,1.009911,1,,lines.csv,
merged_relation/3883863:a-380+1,B583,B582,18420.72,380,1698.103,0.552622,4.531497,1,,lines.csv,
merged_relation/3926258:b-380+1,B653,B511,12634.46,380,3396.205,0.189517,1.554039,2,,lines.csv,
merged_relation/3943784-220+1,B321,B291,9052.02,220,491.556,0.543121,2.724658,1,,lines.csv,
merged_relation/3945260:c-220+2,B37,B38,104703.27,220,491.556,6.282196,31.515684,1,,lines.csv,
merged_relation/69489:a-380+1,B410,B516,44012.66,380,1698.103,1.32038,10.827114,1,,lines.csv,
merged_way/104448814-380+2,B195,B693,5387.08,380,3396.205,0.080806,0.662611,2,,lines.csv,
merged_way/105572022-220+8,B147,B280,8645.08,220,491.556,0.518705,2.602169,1,,lines.csv,
merged_way/105572022-380+5,B343,B281,6661.13,380,1698.103,0.199834,1.638638,1,,lines.csv,
merged_way/106607617-220+8,B47,B556,17422.65,220,983.112,0.522679,2.622109,2,,lines.csv,
merged_way/106607620-220+1,B47,B147,6926.2,220,983.112,0.207786,1.042393,2,,lines.csv,
merged_way/106620935-380+1,B623,B195,9497.79,380,1698.103,0.284934,2.336456,1,,lines.csv,
merged_way/107175372-220+1,B48,B474,2600.12,220,983.112,0.078004,0.391318,2,,lines.csv,
merged_way/107175372-380+1,B49,B262,2579.81,380,3396.205,0.038697,0.317317,2,,lines.csv,
merged_way/1072230175-380+2,B74,B101,7868.67,380,1698.103,0.23606,1.935693,1,,lines.csv,
merged_way/1075677143-380+8,B278,B767,38785.17,380,3396.205,0.581778,4.770576,2,,lines.csv,
merged_way/108188242-220+4,B470,B137,11032.54,220,491.556,0.661952,3.320795,1,,lines.csv,
merged_way/108388734-220+5,B722,B634,19446.19,220,491.556,1.166771,5.853303,1,,lines.csv,
merged_way/109195942-220+2,B493,B188,3779.45,220,491.556,0.226767,1.137614,1,,lines.csv,
merged_way/109330042-380+7,B454,B195,21609.64,380,3396.205,0.324145,2.657986,2,,lines.csv,
merged_way/1093664414-220+9,B159,B672,39733.77,220,491.556,2.384026,11.959865,1,,lines.csv,
merged_way/1093664414-380+8,B686,B72,38151.61,380,1698.103,1.144548,9.385296,1,,lines.csv,
merged_way/109563298-220+1,B55,B229,3051.79,220,491.556,0.183107,0.918589,1,,lines.csv,
merged_way/109563300-220+1,B229,B213,4286.35,220,491.556,0.257181,1.290191,1,,lines.csv,
merged_way/1098393180-380+1,B379,B378,40367.53,380,3396.205,0.605513,4.965206,2,,lines.csv,
merged_way/110379578-220+6,B492,B247,22696.4,220,983.112,0.680892,3.415808,2,,lines.csv,
merged_way/1104699060-380+2,B287,B737,20888.92,380,3396.205,0.313334,2.569337,2,,lines.csv,
merged_way/1117834635-380+2,B491,B60,19942.96,380,3396.205,0.299144,2.452984,2,,lines.csv,
merged_way/1118767015-220+2,B235,B61,13824.73,220,983.112,0.414742,2.080622,2,,lines.csv,
merged_way/1118767015-380+4,B62,B428,20487.67,380,3396.205,0.307315,2.519983,2,,lines.csv,
merged_way/111963058-220+7,B649,B176,42020.45,220,491.556,2.521227,12.648155,1,,lines.csv,
merged_way/111963058-380+2,B175,B64,26375.12,380,3396.205,0.395627,3.24414,2,,lines.csv,
merged_way/112454229-220+1,B787,B267,4229.76,220,983.112,0.126893,0.636579,2,,lines.csv,
merged_way/112454229-380+2,B788,B141,5528.71,380,3396.205,0.082931,0.680031,2,,lines.csv,
merged_way/1130668498-380+2,B66,B384,9579.97,380,3396.205,0.1437,1.178336,2,,lines.csv,
merged_way/114377984-220+4,B67,B619,16891.77,220,491.556,1.013506,5.084423,1,,lines.csv,
merged_way/114377984-380+6,B782,B620,18537.2,380,1698.103,0.556116,4.560151,1,,lines.csv,
merged_way/1161734828-220+2,B668,B313,55526.87,220,983.112,1.665806,8.356794,2,,lines.csv,
merged_way/118266335-380+2,B119,B609,20899.18,380,3396.205,0.313488,2.570599,2,,lines.csv,
merged_way/118351425-220+2,B551,B539,44577.77,220,983.112,1.337333,6.708954,2,,lines.csv,
merged_way/118436919-380+1,B146,B217,22653.47,380,3396.205,0.339802,2.786377,2,,lines.csv,
merged_way/1185493736-380+1,B786,B181,57584.12,380,3396.205,0.863762,7.082847,2,,lines.csv,
merged_way/118904273-380+1,B216,B175,11862.19,380,3396.205,0.177933,1.459049,2,,lines.csv,
merged_way/1196136489-380+3,B219,B605,13951.29,380,3396.205,0.209269,1.716009,2,,lines.csv,
merged_way/120494099-220+10,B423,B86,57291.59,220,983.112,1.718748,8.622384,2,,lines.csv,
merged_way/121199247-220+3,B55,B213,7379.52,220,491.556,0.442771,2.221236,1,,lines.csv,
merged_way/1232204313-220+3,B106,B417,12171.04,220,983.112,0.365131,1.831742,2,,lines.csv,
merged_way/1241945684-380+1,B30,B71,7731.34,380,3396.205,0.11597,0.950955,2,,lines.csv,
merged_way/1244951667-380+2,B76,B554,5143.2,380,3396.205,0.077148,0.632614,2,,lines.csv,
merged_way/127187723-380+1,B791,B775,3599.54,380,3396.205,0.053993,0.442743,2,,lines.csv,
merged_way/129175345-380+2,B299,B476,28625.04,380,3396.205,0.429376,3.52088,2,,lines.csv,
merged_way/1311473763-380+2,B437,B88,64417.55,380,3396.205,0.966263,7.923359,2,,lines.csv,
merged_way/131472622-380+2,B204,B653,18202.11,380,3396.205,0.273032,2.23886,2,,lines.csv,
merged_way/131956209-220+1,B225,B739,3705.48,220,983.112,0.111164,0.557675,2,,lines.csv,
merged_way/132074206-220+3,B739,B225,3748.07,220,491.556,0.224884,1.128169,1,,lines.csv,
merged_way/1356640248-380+1,B284,B391,42801.16,380,3396.205,0.642017,5.264543,2,,lines.csv,
merged_way/1359558142-380+1,B77,B143,3116.15,380,3396.205,0.046742,0.383286,2,,lines.csv,
merged_way/1361102967-220+20,B86,B323,52353.73,220,983.112,1.570612,7.879236,2,,lines.csv,
merged_way/1365778110-380+2,B702,B79,4109.12,380,1698.103,0.123274,1.010844,1,,lines.csv,
merged_way/138220867-380+2,B190,B112,33899.93,380,3396.205,0.508499,4.169691,2,,lines.csv,
merged_way/139305260-220+2,B679,B377,20382.91,220,983.112,0.611487,3.067628,2,,lines.csv,
merged_way/139305260-380+2,B680,B378,19614.43,380,3396.205,0.294216,2.412575,2,,lines.csv,
merged_way/1414610501-220+3,B266,B247,16322.39,220,491.556,0.979343,4.913039,1,,lines.csv,
merged_way/1434798779-380+1,B391,B88,2110.53,380,3396.205,0.031658,0.259595,2,,lines.csv,
merged_way/143848416-220+1,B106,B90,16361.29,220,491.556,0.981677,4.924748,1,,lines.csv,
merged_way/143901793-220+1,B89,B330,2507.36,220,491.556,0.150442,0.754715,1,,lines.csv,
merged_way/143980167-220+3,B641,B268,72654.37,220,983.112,2.179631,10.934483,2,,lines.csv,
merged_way/144232574-220+2,B462,B108,48532.26,220,983.112,1.455968,7.304105,2,,lines.csv,
merged_way/145129281-220+2,B120,B330,25526.19,220,491.556,1.531571,7.683383,1,,lines.csv,
merged_way/145129281-380+5,B331,B269,31855.37,380,1698.103,0.955661,7.836421,1,,lines.csv,
merged_way/1453341868-380+3,B273,B460,10671.51,380,3396.205,0.160073,1.312596,2,,lines.csv,
merged_way/146086014-220+2,B113,B440,27481.04,220,491.556,1.648862,8.271793,1,,lines.csv,
merged_way/146633582-220+2,B22,B659,6822.02,220,491.556,0.409321,2.053428,1,,lines.csv,
merged_way/147964967-220+1,B451,B641,9264.97,220,1474.668,0.185299,0.929585,3,,lines.csv,
merged_way/149064310-380+3,B507,B220,5202.35,380,3396.205,0.078035,0.639889,2,,lines.csv,
merged_way/149567315-380+1,B88,B284,43537.44,380,3396.205,0.653062,5.355105,2,,lines.csv,
merged_way/151689335-380+1,B99,B648,3196.91,380,3396.205,0.047954,0.39322,2,,lines.csv,
merged_way/151967297-220+3,B376,B46,19589.66,220,491.556,1.17538,5.896488,1,,lines.csv,
merged_way/152107801-220+5,B105,B388,90699.07,220,983.112,2.720972,13.65021,2,,lines.csv,
merged_way/152107836-380+3,B689,B379,49489.56,380,3396.205,0.742343,6.087216,2,,lines.csv,
merged_way/152403734-380+3,B401,B95,39752.33,380,1698.103,1.19257,9.779073,1,,lines.csv,
merged_way/152924493-220+2,B197,B385,19711.04,220,491.556,1.182662,5.933023,1,,lines.csv,
merged_way/152924493-380+1,B513,B200,19730.82,380,1698.103,0.591925,4.853782,1,,lines.csv,
merged_way/152924510-220+2,B105,B104,9144.85,220,983.112,0.274345,1.3763,2,,lines.csv,
merged_way/152924510-380+1,B689,B370,16835.45,380,3396.205,0.252532,2.07076,2,,lines.csv,
merged_way/153089326-220+1,B417,B22,2820.64,220,491.556,0.169238,0.849013,1,,lines.csv,
merged_way/153089326-380+2,B94,B418,2797.97,380,3396.205,0.04197,0.34415,2,,lines.csv,
merged_way/153089338-220+2,B106,B402,13841.84,220,983.112,0.415255,2.083197,2,,lines.csv,
merged_way/155269862-220+4,B47,B548,10015.55,220,983.112,0.300466,1.50734,2,,lines.csv,
merged_way/155496642-220+1,B614,B472,5896.9,220,983.112,0.176907,0.887483,2,,lines.csv,
merged_way/156676048-380+1,B168,B517,7918.77,380,3396.205,0.118782,0.974009,2,,lines.csv,
merged_way/156684001-380+3,B754,B749,61888.87,380,3396.205,0.928333,7.612331,2,,lines.csv,
merged_way/156960648-220+3,B533,B407,46293.11,220,983.112,1.388793,6.967113,2,,lines.csv,
merged_way/156960648-380+3,B534,B656,45037.9,380,3396.205,0.675568,5.539662,2,,lines.csv,
merged_way/157160048-220+3,B313,B592,31688.71,220,491.556,1.901323,9.538302,1,,lines.csv,
merged_way/157160048-380+2,B314,B593,31701.76,380,1698.103,0.951053,7.798633,1,,lines.csv,
merged_way/157903633-380+5,B695,B241,8626.26,380,1698.103,0.258788,2.12206,1,,lines.csv,
merged_way/159685340-220+3,B174,B740,5779.22,220,983.112,0.173377,0.869773,2,,lines.csv,
merged_way/160485212-220+6,B122,B626,33335.9,220,491.556,2.000154,10.034106,1,,lines.csv,
merged_way/160485212-380+6,B123,B627,33336.5,380,1698.103,1.000095,8.200779,1,,lines.csv,
merged_way/164112589-380+4,B422,B445,31074.89,380,3396.205,0.466123,3.822211,2,,lines.csv,
merged_way/167261399-380+3,B133,B504,63566.65,380,1698.103,1.907,15.637396,1,,lines.csv,
merged_way/167299613-380+7,B653,B87,36046.73,380,3396.205,0.540701,4.433748,2,,lines.csv,
merged_way/169116881-380+9,B389,B359,72606.62,380,3396.205,1.089099,8.930614,2,,lines.csv,
merged_way/169236154-380+1,B19,B95,37567.58,380,1698.103,1.127027,9.241625,1,,lines.csv,
merged_way/169536831-380+1,B463,B736,83212.0,380,5094.308,0.83212,6.823384,3,,lines.csv,
merged_way/177838535-380+1,B655,B611,66983.2,380,3396.205,1.004748,8.238934,2,,lines.csv,
merged_way/178708511-220+1,B650,B116,5767.41,220,491.556,0.346045,1.73599,1,,lines.csv,
merged_way/184007156-380+1,B234,B198,26706.01,380,1698.103,0.80118,6.569678,1,,lines.csv,
merged_way/185849924-220+2,B164,B347,7207.47,220,983.112,0.216224,1.084724,2,,lines.csv,
merged_way/189574879-220+3,B510,B206,14813.22,220,491.556,0.888793,4.458779,1,,lines.csv,
merged_way/189574885-380+3,B633,B221,13803.85,380,1698.103,0.414116,3.395747,1,,lines.csv,
merged_way/190815004-220+1,B564,B67,11861.53,220,983.112,0.355846,1.78516,2,,lines.csv,
merged_way/191254576-220+2,B348,B207,3699.35,220,983.112,0.11098,0.556752,2,,lines.csv,
merged_way/200409374-220+3,B120,B37,36894.85,220,491.556,2.213691,11.10535,1,,lines.csv,
merged_way/200460375-380+2,B616,B210,1337.27,380,1698.103,0.040118,0.328968,1,,lines.csv,
merged_way/201153707-220+2,B425,B191,4437.26,220,491.556,0.266236,1.335615,1,,lines.csv,
merged_way/201153707-380+2,B426,B129,4422.19,380,1698.103,0.132666,1.087859,1,,lines.csv,
merged_way/201775659-220+2,B137,B468,5147.05,220,491.556,0.308823,1.549262,1,,lines.csv,
merged_way/202576764-220+1,B92,B263,11889.13,220,983.112,0.356674,1.789314,2,,lines.csv,
merged_way/202576764-380+1,B97,B265,10169.68,380,3396.205,0.152545,1.250871,2,,lines.csv,
merged_way/203675974-380+1,B632,B183,3363.58,380,3396.205,0.050454,0.41372,2,,lines.csv,
merged_way/207488613-380+1,B81,B63,2036.48,380,3396.205,0.030547,0.250487,2,,lines.csv,
merged_way/207578308-220+6,B102,B383,19580.64,220,983.112,0.587419,2.946886,2,,lines.csv,
merged_way/207579638-220+1,B103,B121,13492.03,220,491.556,0.809522,4.061101,1,,lines.csv,
merged_way/208256287-220+2,B748,B530,67889.4,220,491.556,4.073364,20.434709,1,,lines.csv,
merged_way/208256287-380+2,B749,B531,67946.77,380,1698.103,2.038403,16.714905,1,,lines.csv,
merged_way/216987765-220+3,B694,B237,5147.9,220,491.556,0.308874,1.549518,1,,lines.csv,
merged_way/216987765-380+7,B695,B238,11952.59,380,1698.103,0.358578,2.940337,1,,lines.csv,
merged_way/218247012-155+2,B126,B172,72196.71,155,173.162,8.576969,28.156717,1,,lines.csv,
merged_way/219514833-380+1,B517,B170,1801.92,380,3396.205,0.027029,0.221636,2,,lines.csv,
merged_way/219919304-220+2,B556,B218,8790.57,220,983.112,0.263717,1.322981,2,,lines.csv,
merged_way/224460993-220+4,B510,B789,3480.11,220,491.556,0.208807,1.047513,1,,lines.csv,
merged_way/224460993-380+2,B511,B221,3480.53,380,1698.103,0.104416,0.85621,1,,lines.csv,
merged_way/22766290-220+3,B434,B425,12432.47,220,491.556,0.745948,3.742173,1,,lines.csv,
merged_way/22766290-380+3,B435,B426,12436.67,380,1698.103,0.3731,3.059421,1,,lines.csv,
merged_way/231735880-380+2,B786,B131,66034.6,380,3396.205,0.990519,8.122256,2,,lines.csv,
merged_way/231741801-220+1,B89,B37,21033.69,220,491.556,1.262021,6.331141,1,,lines.csv,
merged_way/231741801-380+3,B331,B322,18536.65,380,1698.103,0.5561,4.560016,1,,lines.csv,
merged_way/233500126-380+2,B531,B161,4758.94,380,1698.103,0.142768,1.170699,1,,lines.csv,
merged_way/23382106-380+1,B221,B132,12598.1,380,3396.205,0.188972,1.549566,2,,lines.csv,
merged_way/23598077-220+3,B748,B432,38475.21,220,983.112,1.154256,5.790519,2,,lines.csv,
merged_way/23707819-220+3,B272,B177,29935.44,220,983.112,0.898063,4.505284,2,,lines.csv,
merged_way/240543053:a-220+1,B587,B503,112540.03,220,491.556,6.752402,33.874549,1,,lines.csv,
merged_way/240543053:a-380+5,B588,B504,112550.29,380,1698.103,3.376509,27.687371,1,,lines.csv,
merged_way/241626236-220+2,B212,B776,1621.52,220,491.556,0.097291,0.488078,1,,lines.csv,
merged_way/243146012-380+1,B299,B70,3569.42,380,3396.205,0.053541,0.439039,2,,lines.csv,
merged_way/24428845-380+1,B136,B424,7376.95,380,3396.205,0.110654,0.907365,2,,lines.csv,
merged_way/24462486-380+2,B471,B139,4881.17,380,3396.205,0.073218,0.600384,2,,lines.csv,
merged_way/24479533-380+3,B152,B687,8432.51,380,3396.205,0.126488,1.037199,2,,lines.csv,
merged_way/24493930-380+2,B525,B719,9162.45,380,3396.205,0.137437,1.126981,2,,lines.csv,
merged_way/24523546-380+1,B115,B511,10439.32,380,3396.205,0.15659,1.284036,2,,lines.csv,
merged_way/24532884-380+6,B443,B788,14327.6,380,1698.103,0.429828,3.52459,1,,lines.csv,
merged_way/24833555-380+5,B494,B424,22051.6,380,3396.205,0.330774,2.712347,2,,lines.csv,
merged_way/24841695-220+1,B493,B59,2902.7,220,983.112,0.087081,0.436856,2,,lines.csv,
merged_way/24841789-220+2,B493,B188,3790.01,220,983.112,0.1137,0.570397,2,,lines.csv,
merged_way/249097291-220+5,B649,B776,27868.97,220,491.556,1.672138,8.38856,1,,lines.csv,
merged_way/25028229-220+3,B147,B301,8223.37,220,983.112,0.246701,1.237617,2,,lines.csv,
merged_way/25028229-380+3,B148,B302,8244.07,380,3396.205,0.123661,1.014021,2,,lines.csv,
merged_way/25039686-380+6,B281,B557,20523.3,380,3396.205,0.30785,2.524366,2,,lines.csv,
merged_way/25088811-220+1,B429,B150,5109.87,220,983.112,0.153296,0.769035,2,,lines.csv,
merged_way/25090745-380+1,B320,B433,3484.7,380,3396.205,0.05227,0.428618,2,,lines.csv,
merged_way/25331184-380+4,B525,B279,58535.0,380,3396.205,0.878025,7.199805,2,,lines.csv,
merged_way/25393442-220+4,B342,B124,23207.46,220,983.112,0.696224,3.492723,2,,lines.csv,
merged_way/25788425-220+2,B218,B156,14298.75,220,491.556,0.857925,4.303924,1,,lines.csv,
merged_way/25788425-380+1,B433,B157,14318.18,380,1698.103,0.429545,3.522272,1,,lines.csv,
merged_way/26043880-220+6,B237,B701,6783.56,220,491.556,0.407014,2.041852,1,,lines.csv,
merged_way/26281485-380+3,B618,B517,7542.87,380,3396.205,0.113143,0.927773,2,,lines.csv,
merged_way/26403582-380+2,B517,B519,12888.99,380,3396.205,0.193335,1.585346,2,,lines.csv,
merged_way/26565859-380+1,B725,B274,83803.32,380,3396.205,1.25705,10.307808,2,,lines.csv,
merged_way/26660205-380+1,B162,B736,4468.63,380,1698.103,0.134059,1.099283,1,,lines.csv,
merged_way/26982408-220+1,B490,B276,8904.41,220,983.112,0.267132,1.340114,2,,lines.csv,
merged_way/27044875-220+1,B163,B423,10974.7,220,983.112,0.329241,1.651692,2,,lines.csv,
merged_way/27092940-220+1,B164,B163,7586.67,220,983.112,0.2276,1.141794,2,,lines.csv,
merged_way/27196813-220+6,B682,B722,73276.54,220,491.556,4.396592,22.056239,1,,lines.csv,
merged_way/27196813-380+4,B699,B723,47152.21,380,1698.103,1.414566,11.599444,1,,lines.csv,
merged_way/27275258:a-220+3,B160,B21,28497.94,220,983.112,0.854938,4.28894,2,,lines.csv,
merged_way/27335805-220+1,B521,B563,2484.95,220,983.112,0.074548,0.373985,2,,lines.csv,
merged_way/277828184-380+1,B441,B167,9462.67,380,3396.205,0.14194,1.163908,2,,lines.csv,
merged_way/28112089-220+8,B134,B116,38322.52,220,983.112,1.149676,5.767539,2,,lines.csv,
merged_way/28203625-220+5,B490,B542,19905.46,220,983.112,0.597164,2.995772,2,,lines.csv,
merged_way/28203625-380+3,B491,B60,19922.23,380,3396.205,0.298833,2.450434,2,,lines.csv,
merged_way/283908304-380+1,B702,B220,16631.98,380,3396.205,0.24948,2.045734,2,,lines.csv,
merged_way/283935356-220+1,B429,B218,3373.13,220,1966.224,0.050597,0.253828,4,,lines.csv,
merged_way/284701563-220+4,B86,B337,11595.4,220,983.112,0.347862,1.745108,2,,lines.csv,
merged_way/284925905-380+1,B3,B2,4866.08,380,3396.205,0.072991,0.598528,2,,lines.csv,
merged_way/284965427-380+5,B281,B596,14785.04,380,3396.205,0.221776,1.81856,2,,lines.csv,
merged_way/284969513-220+9,B548,B239,16332.920000000002,220,983.112,0.489988,2.458104,2,,lines.csv,
merged_way/28658059-220+3,B313,B696,28790.64,220,983.112,0.863719,4.332991,2,,lines.csv,
merged_way/288192154-220+1,B381,B595,20121.4,220,983.112,0.603642,3.028271,2,,lines.csv,
merged_way/28861606-380+1,B169,B170,5861.14,380,3396.205,0.087917,0.72092,2,,lines.csv,
merged_way/290703850-380+3,B646,B534,28115.97,380,3396.205,0.42174,3.458264,2,,lines.csv,
merged_way/29252732-380+1,B273,B452,13893.2,380,3396.205,0.208398,1.708864,2,,lines.csv,
merged_way/29252734-220+1,B173,B765,13236.13,220,983.112,0.397084,1.992038,2,,lines.csv,
merged_way/29380943-220+3,B301,B694,8276.87,220,983.112,0.248306,1.245669,2,,lines.csv,
merged_way/29472854-380+4,B14,B565,2233.89,380,1698.103,0.067017,0.549537,1,,lines.csv,
merged_way/296529805-380+3,B718,B680,23436.22,380,3396.205,0.351543,2.882655,2,,lines.csv,
merged_way/296751942-220+1,B703,B570,18126.13,220,983.112,0.543784,2.727983,2,,lines.csv,
merged_way/30132577-220+3,B13,B530,104348.07,220,491.556,6.260884,31.408769,1,,lines.csv,
merged_way/30132577-380+2,B522,B161,99791.94,380,1698.103,2.993758,24.548817,1,,lines.csv,
merged_way/30181272-380+1,B316,B314,57054.62,380,3396.205,0.855819,7.017718,2,,lines.csv,
merged_way/30246219-380+3,B133,B168,11896.67,380,3396.205,0.17845,1.46329,2,,lines.csv,
merged_way/30286003-220+2,B594,B235,2913.92,220,983.112,0.087418,0.438545,2,,lines.csv,
merged_way/30416989-380+1,B756,B16,50891.17,380,3396.205,0.763368,6.259614,2,,lines.csv,
merged_way/309079148-380+1,B433,B152,12836.3,380,3396.205,0.192544,1.578865,2,,lines.csv,
merged_way/31311091-220+8,B356,B357,8278.11,220,983.112,0.248343,1.245856,2,,lines.csv,
...
relation/1000670-380,B289,B753,34905.2,380,1698.103,1.047156,8.586679,1,,lines.csv,
relation/1021991-380,B289,B753,34905.2,380,1698.103,1.047156,8.586679,1,,lines.csv,
relation/1022003-380,B444,B289,46516.63,380,1698.103,1.395499,11.443091,1,,lines.csv,
relation/1022004-380,B569,B289,71064.53,380,1698.103,2.131936,17.481874,1,,lines.csv,
relation/10492657:b-220,B439,B601,27720.05,220,491.556,1.663203,8.343735,1,,lines.csv,
relation/10588954-380,B602,B396,83847.84,380,1698.103,2.515435,20.626569,1,,lines.csv,
relation/1082809-380,B644,B648,114303.39,380,1698.103,3.429102,28.118634,1,,lines.csv,
relation/1082816-380,B644,B340,67279.02,380,1698.103,2.018371,16.550639,1,,lines.csv,
relation/1082817-380,B612,B596,24416.77,380,1698.103,0.732503,6.006525,1,,lines.csv,
relation/1082948-380,B459,B154,12180.09,380,1698.103,0.365403,2.996302,1,,lines.csv,
relation/1082953:a-380,B506,B154,1945.54,380,1698.103,0.058366,0.478603,1,,lines.csv,
relation/1082953:b-380,B154,B725,14633.14,380,1698.103,0.438994,3.599752,1,,lines.csv,
relation/1082955:a-380,B154,B725,14633.14,380,1698.103,0.438994,3.599752,1,,lines.csv,
relation/1083988:a-220,B357,B383,50789.33,220,983.112,1.52368,7.643794,2,,lines.csv,
relation/1083990:c-380,B353,B384,73304.36,380,1698.103,2.199131,18.032873,1,,lines.csv,
relation/1084001:b-220,B423,B541,10053.65,220,983.112,0.30161,1.513074,2,,lines.csv,
relation/1084027-220,B427,B357,16718.67,220,491.556,1.00312,5.03232,1,,lines.csv,
relation/1084032:b-220,B541,B560,11320.97,220,983.112,0.339629,1.703806,2,,lines.csv,
relation/1084046-220,B427,B357,16718.67,220,491.556,1.00312,5.03232,1,,lines.csv,
relation/1084358:b-380,B725,B524,4439.81,380,5094.308,0.044398,0.364064,3,,lines.csv,
relation/1101996-220,B434,B420,4671.35,220,983.112,0.14014,0.703038,2,,lines.csv,
relation/1102892:b-380,B494,B528,13182.61,380,1698.103,0.395478,3.242922,1,,lines.csv,
relation/1109593:a-380,B535,B2,2114.38,380,1698.103,0.063431,0.520137,1,,lines.csv,
relation/1109593:b-380,B2,B3,4886.21,380,1698.103,0.146586,1.202008,1,,lines.csv,
relation/1109593:c-380,B3,B596,2371.68,380,1698.103,0.07115,0.583433,1,,lines.csv,
relation/1109599:a-380,B535,B2,2114.38,380,1698.103,0.063431,0.520137,1,,lines.csv,
relation/1109599:b-380,B2,B3,4886.21,380,1698.103,0.146586,1.202008,1,,lines.csv,
relation/1109599:c-380,B3,B596,2371.68,380,1698.103,0.07115,0.583433,1,,lines.csv,
relation/1109600-220,B776,B466,24978.98,220,491.556,1.498739,7.518673,1,,lines.csv,
relation/1109616-220,B496,B371,3439.49,220,491.556,0.206369,1.035286,1,,lines.csv,
relation/1109619-220,B496,B371,3439.49,220,491.556,0.206369,1.035286,1,,lines.csv,
relation/11223311-380,B763,B629,107490.42,380,1698.103,3.224713,26.442643,1,,lines.csv,
relation/11223312-380,B629,B550,7903.81,380,1698.103,0.237114,1.944337,1,,lines.csv,
relation/1123975:a-220,B4,B496,8494.58,220,491.556,0.509675,2.556869,1,,lines.csv,
relation/1123976:a-220,B4,B496,8422.64,220,491.556,0.505358,2.535215,1,,lines.csv,
relation/112804-380,B410,B516,44037.13,380,1698.103,1.321114,10.833134,1,,lines.csv,
relation/112810:b-220,B455,B515,5640.85,220,983.112,0.169226,0.848948,2,,lines.csv,
relation/11374897-220,B495,B466,1749.59,220,491.556,0.104975,0.526627,1,,lines.csv,
relation/1141616:a-380,B759,B5,2770.11,380,1698.103,0.083103,0.681447,1,,lines.csv,
relation/1141616:b-380,B5,B6,2868.26,380,1698.103,0.086048,0.705592,1,,lines.csv,
relation/1141616:c-380,B6,B406,86409.45,380,1698.103,2.592283,21.256725,1,,lines.csv,
relation/1141617:a-380,B759,B5,2770.11,380,1698.103,0.083103,0.681447,1,,lines.csv,
relation/1141617:b-380,B5,B6,2868.26,380,1698.103,0.086048,0.705592,1,,lines.csv,
relation/1141617:c-380,B6,B406,86409.45,380,1698.103,2.592283,21.256725,1,,lines.csv,
relation/114252-220,B457,B409,30891.0,220,491.556,1.85346,9.298191,1,,lines.csv,
relation/114742-380,B578,B315,5555.46,380,1698.103,0.166664,1.366643,1,,lines.csv,
relation/114782-380,B445,B286,28457.48,380,1698.103,0.853724,7.00054,1,,lines.csv,
relation/114789-380,B545,B546,25495.9,380,1698.103,0.764877,6.271991,1,,lines.csv,
relation/11518116-380,B566,B7,4225.07,380,1698.103,0.126752,1.039367,1,,lines.csv,
relation/11518117-380,B566,B7,4225.07,380,1698.103,0.126752,1.039367,1,,lines.csv,
relation/1167326-220,B470,B349,18940.41,220,491.556,1.136425,5.701063,1,,lines.csv,
relation/1167333-220,B470,B8,20073.34,220,491.556,1.2044,6.042075,1,,lines.csv,
relation/1173397-380,B522,B607,37233.59,380,1698.103,1.117008,9.159463,1,,lines.csv,
relation/1177425-220,B764,B657,56438.33,220,491.556,3.3863,16.987937,1,,lines.csv,
relation/1177426-220,B764,B657,56438.33,220,491.556,3.3863,16.987937,1,,lines.csv,
relation/1188841-380,B299,B445,29685.5,380,1698.103,0.890565,7.302633,1,,lines.csv,
relation/1188844-380,B299,B445,29685.5,380,1698.103,0.890565,7.302633,1,,lines.csv,
relation/1190715:a-220,B276,B743,4924.59,220,491.556,0.295475,1.482302,1,,lines.csv,
relation/12006830-380,B697,B300,5726.68,380,1698.103,0.1718,1.408763,1,,lines.csv,
relation/12198594-380,B295,B10,27038.88,380,1698.103,0.811166,6.651564,1,,lines.csv,
relation/12198595-380,B295,B10,27021.96,380,1698.103,0.810659,6.647402,1,,lines.csv,
relation/1224880:a-220,B349,B496,10017.73,220,491.556,0.601064,3.015337,1,,lines.csv,
relation/1224881:a-220,B349,B496,10017.73,220,491.556,0.601064,3.015337,1,,lines.csv,
relation/1225767:a-220,B744,B743,5566.14,220,491.556,0.333968,1.675408,1,,lines.csv,
relation/12300319-380,B368,B483,56679.87,380,1698.103,1.700396,13.943248,1,,lines.csv,
relation/12300322-220,B390,B404,32221.28,220,491.556,1.933277,9.698605,1,,lines.csv,
relation/12479136-380,B612,B341,8403.1,380,1698.103,0.252093,2.067163,1,,lines.csv,
relation/12479137-380,B596,B341,16298.79,380,1698.103,0.488964,4.009502,1,,lines.csv,
relation/12479461:a-380,B341,B11,3513.14,380,1698.103,0.105394,0.864232,1,,lines.csv,
relation/12479461:b-380,B11,B479,7437.33,380,1698.103,0.22312,1.829583,1,,lines.csv,
relation/12479462:a-380,B341,B11,3513.14,380,1698.103,0.105394,0.864232,1,,lines.csv,
relation/12479462:b-380,B11,B479,7437.33,380,1698.103,0.22312,1.829583,1,,lines.csv,
relation/12544904:a-380,B559,B656,64966.48,380,1698.103,1.948994,15.981754,1,,lines.csv,
relation/12544904:b-380,B656,B774,48006.29,380,1698.103,1.440189,11.809547,1,,lines.csv,
relation/12818416-380,B389,B559,40834.14,380,1698.103,1.225024,10.045198,1,,lines.csv,
relation/12819660-380,B559,B367,50671.2,380,1698.103,1.520136,12.465115,1,,lines.csv,
relation/12819661-380,B642,B367,89229.94,380,1698.103,2.676898,21.950565,1,,lines.csv,
relation/12825581-380,B559,B656,64966.48,380,1698.103,1.948994,15.981754,1,,lines.csv,
relation/12842816-380,B571,B655,16092.23,380,1698.103,0.482767,3.958689,1,,lines.csv,
relation/12842817-380,B571,B655,16092.23,380,1698.103,0.482767,3.958689,1,,lines.csv,
relation/12842819-380,B655,B741,26954.3,380,1698.103,0.808629,6.630758,1,,lines.csv,
relation/12842820-380,B655,B741,26954.3,380,1698.103,0.808629,6.630758,1,,lines.csv,
relation/12896838-380,B333,B285,2938.0,380,1698.103,0.08814,0.722748,1,,lines.csv,
relation/12896839-380,B333,B285,2938.0,380,1698.103,0.08814,0.722748,1,,lines.csv,
relation/12900764-380,B355,B512,31990.97,380,1698.103,0.959729,7.869779,1,,lines.csv,
relation/129420-380,B559,B770,129726.97,380,1698.103,3.891809,31.912835,1,,lines.csv,
relation/129422-380,B771,B770,72598.26,380,1698.103,2.177948,17.859172,1,,lines.csv,
relation/13073144-220,B12,B13,20507.54,220,491.556,1.230452,6.17277,1,,lines.csv,
relation/13239127-380,B359,B454,50625.31,380,1698.103,1.518759,12.453826,1,,lines.csv,
relation/14236924-380,B396,B277,70757.33,380,1698.103,2.12272,17.406303,1,,lines.csv,
relation/142684-220,B539,B606,74909.76,220,491.556,4.494586,22.547838,1,,lines.csv,
relation/14435819-380,B523,B522,48344.04,380,1698.103,1.450321,11.892634,1,,lines.csv,
relation/14459971-380,B756,B658,55658.63,380,1698.103,1.669759,13.692023,1,,lines.csv,
relation/14488153-380,B368,B509,8104.419999999999,380,1698.103,0.243133,1.993687,1,,lines.csv,
relation/14510605-380,B555,B578,14168.93,380,1698.103,0.425068,3.485557,1,,lines.csv,
relation/14510606-380,B555,B578,14168.93,380,1698.103,0.425068,3.485557,1,,lines.csv,
relation/14510647:a-380,B690,B555,22710.42,380,1698.103,0.681313,5.586763,1,,lines.csv,
relation/14510648-380,B690,B555,22710.42,380,1698.103,0.681313,5.586763,1,,lines.csv,
relation/14510907-380,B292,B537,2990.24,380,1698.103,0.089707,0.735599,1,,lines.csv,
relation/14510979-380,B684,B573,9623.58,380,1698.103,0.288707,2.367401,1,,lines.csv,
relation/14510980-380,B684,B573,9623.58,380,1698.103,0.288707,2.367401,1,,lines.csv,
relation/14514196:b-380,B18,B513,27260.21,380,1698.103,0.817806,6.706012,1,,lines.csv,
relation/14514288-380,B329,B589,46831.76,380,1698.103,1.404953,11.520613,1,,lines.csv,
relation/14514411-220,B547,B34,33216.91,220,491.556,1.993015,9.99829,1,,lines.csv,
relation/14514424:b-380,B782,B14,10304.06,380,3396.205,0.154561,1.267399,2,,lines.csv,
relation/14543718-220,B657,B15,86180.57,220,1474.668,1.723611,8.646784,3,,lines.csv,
relation/145510:b-380,B721,B16,58017.44,380,1698.103,1.740523,14.27229,1,,lines.csv,
relation/145510:d-380,B16,B289,42462.13,380,1698.103,1.273864,10.445684,1,,lines.csv,
relation/14567632-380,B719,B593,27114.95,380,1698.103,0.813448,6.670278,1,,lines.csv,
relation/14595857:b-380,B623,B65,2131.06,380,1698.103,0.063932,0.524241,1,,lines.csv,
relation/14595857:c-380,B65,B19,4787.88,380,1698.103,0.143636,1.177818,1,,lines.csv,
relation/14595857:e-380,B19,B405,7187.91,380,1698.103,0.215637,1.768226,1,,lines.csv,
relation/14596023-380,B370,B387,26854.69,380,1698.103,0.805641,6.606254,1,,lines.csv,
relation/14596024-380,B370,B387,26854.69,380,1698.103,0.805641,6.606254,1,,lines.csv,
relation/14597254-380,B629,B754,65877.03,380,1698.103,1.976311,16.205749,1,,lines.csv,
relation/14617003-380,B654,B602,20205.8,380,1698.103,0.606174,4.970627,1,,lines.csv,
relation/14650713:a-380,B454,B642,19727.5,380,1698.103,0.591825,4.852965,1,,lines.csv,
relation/15097913-380,B312,B314,59731.02,380,1698.103,1.791931,14.693831,1,,lines.csv,
relation/15097914-380,B312,B314,59745.44,380,1698.103,1.792363,14.697378,1,,lines.csv,
relation/15751730-220,B385,B1,12294.89,220,983.112,0.368847,1.850381,2,,lines.csv,
relation/1578736:a-220,B614,B613,2537.2,220,983.112,0.076116,0.381849,2,,lines.csv,
relation/1605946-220,B478,B352,22168.08,220,491.556,1.330085,6.672592,1,,lines.csv,
relation/1605949-220,B478,B352,22168.08,220,491.556,1.330085,6.672592,1,,lines.csv,
relation/1633120-380,B465,B98,1655.46,380,1698.103,0.049664,0.407243,1,,lines.csv,
relation/1636721-220,B386,B369,13183.2,220,491.556,0.790992,3.968143,1,,lines.csv,
relation/1636726-220,B386,B369,13183.2,220,491.556,0.790992,3.968143,1,,lines.csv,
relation/1636729:a-380,B387,B511,84703.82,380,3396.205,1.270557,10.41857,2,,lines.csv,
relation/1636750-380,B17,B753,7308.04,380,1698.103,0.219241,1.797778,1,,lines.csv,
relation/1636782-220,B288,B360,41546.85,220,491.556,2.492811,12.505602,1,,lines.csv,
relation/1636783-220,B288,B764,106772.99,220,491.556,6.406379,32.13867,1,,lines.csv,
relation/1636863-380,B456,B477,45608.33,380,1698.103,1.36825,11.219649,1,,lines.csv,
relation/1636864-380,B456,B355,14971.84,380,1698.103,0.449155,3.683073,1,,lines.csv,
relation/1636865-380,B456,B355,14971.84,380,1698.103,0.449155,3.683073,1,,lines.csv,
relation/1636866-380,B456,B477,45608.33,380,1698.103,1.36825,11.219649,1,,lines.csv,
relation/1636917-380,B782,B609,61772.01,380,1698.103,1.85316,15.195914,1,,lines.csv,
relation/1638848:b-380,B18,B513,27260.21,380,1698.103,0.817806,6.706012,1,,lines.csv,
relation/1641471:b-220,B587,B586,70707.51,220,491.556,4.242451,21.282961,1,,lines.csv,
relation/1641702:a-380,B480,B19,11995.22,380,1698.103,0.359857,2.950824,1,,lines.csv,
relation/1641702:c-380,B19,B65,4787.88,380,1698.103,0.143636,1.177818,1,,lines.csv,
relation/1641702:d-380,B65,B623,2131.06,380,1698.103,0.063932,0.524241,1,,lines.csv,
relation/1641706:a-380,B480,B19,11995.22,380,1698.103,0.359857,2.950824,1,,lines.csv,
relation/1641706:b-380,B19,B405,7187.91,380,1698.103,0.215637,1.768226,1,,lines.csv,
relation/1641722-220,B446,B20,3255.06,220,983.112,0.097652,0.489887,2,,lines.csv,
relation/1641756-380,B640,B441,20300.58,380,1698.103,0.609017,4.993943,1,,lines.csv,
relation/1641757-380,B642,B640,4192.18,380,1698.103,0.125765,1.031276,1,,lines.csv,
relation/1641761:b-380,B441,B642,23011.76,380,1698.103,0.690353,5.660893,1,,lines.csv,
relation/1659072-380,B304,B645,5903.49,380,1698.103,0.177105,1.452259,1,,lines.csv,
relation/1685857-220,B466,B776,24978.98,220,491.556,1.498739,7.518673,1,,lines.csv,
relation/17189379-220,B542,B590,11022.47,220,491.556,0.661348,3.317763,1,,lines.csv,
relation/17189380-220,B590,B666,3314.33,220,491.556,0.19886,0.997613,1,,lines.csv,
relation/17189385-220,B542,B666,7779.35,220,491.556,0.466761,2.341584,1,,lines.csv,
relation/1735138:a-220,B336,B739,59514.61,220,491.556,3.570877,17.913898,1,,lines.csv,
relation/1820695:b-220,B455,B705,51374.56,220,983.112,1.541237,7.731871,2,,lines.csv,
relation/18331044-220,B711,B272,15073.49,220,491.556,0.904409,4.53712,1,,lines.csv,
relation/18499979-380,B568,B406,33302.59,380,1698.103,0.999078,8.192437,1,,lines.csv,
relation/18499980-380,B568,B406,33302.59,380,1698.103,0.999078,8.192437,1,,lines.csv,
relation/18508925-380,B568,B306,31322.94,380,1698.103,0.939688,7.705443,1,,lines.csv,
relation/18508926-380,B568,B306,31322.94,380,1698.103,0.939688,7.705443,1,,lines.csv,
relation/18509114-220,B672,B288,52267.09,220,491.556,3.136025,15.732394,1,,lines.csv,
relation/18521061-380,B597,B522,117075.7,380,1698.103,3.512271,28.800622,1,,lines.csv,
relation/1897790-220,B590,B666,3299.79,220,491.556,0.197987,0.993237,1,,lines.csv,
relation/1897791-220,B590,B666,3314.33,220,491.556,0.19886,0.997613,1,,lines.csv,
relation/1906209-380,B340,B648,50666.28,380,1698.103,1.519988,12.463905,1,,lines.csv,
relation/19793428-220,B457,B409,30891.0,220,491.556,1.85346,9.298191,1,,lines.csv,
relation/2140374-220,B311,B698,3026.5,220,491.556,0.18159,0.910976,1,,lines.csv,
relation/2147236:b-220,B334,B626,5165.59,220,491.556,0.309935,1.554843,1,,lines.csv,
relation/2188188-380,B522,B607,37233.59,380,1698.103,1.117008,9.159463,1,,lines.csv,
relation/2237880-220,B672,B288,52267.09,220,491.556,3.136025,15.732394,1,,lines.csv,
relation/2238161-220,B360,B764,65301.32000000001,220,491.556,3.918079,19.655697,1,,lines.csv,
relation/2247028-380,B437,B396,83098.93,380,1698.103,2.492968,20.442337,1,,lines.csv,
relation/2247029-380,B437,B396,83098.93,380,1698.103,2.492968,20.442337,1,,lines.csv,
relation/2247305:b-220,B601,B23,10446.35,220,491.556,0.626781,3.144351,1,,lines.csv,
relation/2247305:d-220,B23,B436,41413.44,220,491.556,2.484806,12.465445,1,,lines.csv,
relation/2252482:b-380,B309,B359,13200.95,380,1698.103,0.396028,3.247434,1,,lines.csv,
relation/240489-220,B630,B530,55282.85,220,491.556,3.316971,16.640138,1,,lines.csv,
relation/240490-220,B630,B530,55282.85,220,491.556,3.316971,16.640138,1,,lines.csv,
relation/2450379-220,B781,B608,61530.35,220,491.556,3.691821,18.520635,1,,lines.csv,
relation/252583-380,B318,B759,16267.08,380,1698.103,0.488012,4.001702,1,,lines.csv,
relation/252584-380,B318,B759,16267.08,380,1698.103,0.488012,4.001702,1,,lines.csv,
relation/270536-380,B559,B771,58197.5,380,1698.103,1.745925,14.316585,1,,lines.csv,
relation/270963-380,B389,B559,40834.14,380,1698.103,1.225024,10.045198,1,,lines.csv,
relation/272103:b-380,B463,B382,120852.32,380,1698.103,3.62557,29.729671,1,,lines.csv,
relation/272126-380,B382,B702,32926.65,380,1698.103,0.9878,8.099956,1,,lines.csv,
relation/272728:a-220,B381,B598,13788.07,220,491.556,0.827284,4.150209,1,,lines.csv,
relation/272729:b-220,B598,B604,21872.24,220,491.556,1.312334,6.583544,1,,lines.csv,
relation/272732:a-220,B381,B604,29449.3,220,491.556,1.766958,8.864239,1,,lines.csv,
relation/289000-380,B719,B593,27114.95,380,1698.103,0.813448,6.670278,1,,lines.csv,
relation/2910798-380,B286,B569,87232.29,380,1698.103,2.616969,21.459143,1,,lines.csv,
relation/2910799-380,B286,B444,111100.4,380,1698.103,3.333012,27.330698,1,,lines.csv,
relation/2927579-380,B757,B399,46014.22,380,1698.103,1.380427,11.319498,1,,lines.csv,
relation/2927580-380,B757,B399,46014.22,380,1698.103,1.380427,11.319498,1,,lines.csv,
relation/2927597-380,B399,B24,5830.27,380,1698.103,0.174908,1.434246,1,,lines.csv,
relation/2927598-380,B399,B24,5830.27,380,1698.103,0.174908,1.434246,1,,lines.csv,
relation/2927599:a-380,B399,B24,6524.02,380,1698.103,0.195721,1.604909,1,,lines.csv,
relation/2927600:a-380,B399,B24,6524.02,380,1698.103,0.195721,1.604909,1,,lines.csv,
relation/2928164-380,B522,B761,47125.74,380,1698.103,1.413772,11.592932,1,,lines.csv,
relation/2928165-380,B761,B629,116900.81,380,1698.103,3.507024,28.757599,1,,lines.csv,
relation/2928166-380,B761,B754,178740.79,380,1698.103,5.362224,43.970234,1,,lines.csv,
relation/2928167-380,B522,B761,47125.74,380,1698.103,1.413772,11.592932,1,,lines.csv,
relation/2952534-380,B368,B284,50433.69,380,1698.103,1.513011,12.406688,1,,lines.csv,
relation/2952535-380,B368,B284,50433.69,380,1698.103,1.513011,12.406688,1,,lines.csv,
relation/3028644-220,B467,B25,2244.51,220,491.556,0.134671,0.675598,1,,lines.csv,
relation/3098194-220,B765,B461,10748.5,220,491.556,0.64491,3.235298,1,,lines.csv,
relation/3098195-220,B765,B461,10748.5,220,491.556,0.64491,3.235298,1,,lines.csv,
relation/3109536-220,B539,B448,42584.81,220,491.556,2.555089,12.818028,1,,lines.csv,
relation/3109630-380,B540,B465,72680.1,380,1698.103,2.180403,17.879305,1,,lines.csv,
relation/3302864-380,B629,B754,61928.03,380,1698.103,1.857841,15.234295,1,,lines.csv,
relation/3306342-380,B396,B754,88958.95,380,1698.103,2.668768,21.883902,1,,lines.csv,
relation/3306343-380,B396,B754,88958.95,380,1698.103,2.668768,21.883902,1,,lines.csv,
relation/3528700-380,B766,B458,36261.54,380,1698.103,1.087846,8.920339,1,,lines.csv,
relation/3533527:b-380,B460,B766,9279.77,380,1698.103,0.278393,2.282823,1,,lines.csv,
relation/3533700:a-380,B368,B770,56208.44,380,1698.103,1.686253,13.827276,1,,lines.csv,
relation/3534540-380,B766,B546,85904.48,380,1698.103,2.577134,21.132502,1,,lines.csv,
relation/3534541-380,B766,B546,85904.48,380,1698.103,2.577134,21.132502,1,,lines.csv,
relation/3534542-380,B545,B546,25495.9,380,1698.103,0.764877,6.271991,1,,lines.csv,
relation/3687803:b-380,B389,B393,29404.98,380,3396.205,0.441075,3.616813,2,,lines.csv,
relation/3688562-380,B642,B367,89229.94,380,1698.103,2.676898,21.950565,1,,lines.csv,
relation/3688563-380,B559,B367,50671.2,380,1698.103,1.520136,12.465115,1,,lines.csv,
relation/3694014-380,B335,B285,92051.83,380,1698.103,2.761555,22.64475,1,,lines.csv,
relation/3694017-380,B329,B638,55287.93,380,1698.103,1.658638,13.600831,1,,lines.csv,
relation/3694018-380,B589,B285,54138.01,380,1698.103,1.62414,13.31795,1,,lines.csv,
relation/3697399:a-380,B653,B26,5246.25,380,3396.205,0.078694,0.645289,2,,lines.csv,
relation/3697399:b-380,B26,B27,1044.66,380,3396.205,0.01567,0.128493,2,,lines.csv,
relation/3697399:c-380,B27,B322,23542.31,380,3396.205,0.353135,2.895704,2,,lines.csv,
relation/3707291-380,B654,B602,20205.8,380,1698.103,0.606174,4.970627,1,,lines.csv,
relation/3707292-380,B602,B396,83847.84,380,1698.103,2.515435,20.626569,1,,lines.csv,
relation/3707293-380,B770,B654,104366.41,380,1698.103,3.130992,25.674137,1,,lines.csv,
relation/3710278:b-380,B706,B410,50417.15,380,3396.205,0.756257,6.201309,2,,lines.csv,
relation/3710279-380,B576,B677,35056.34,380,1698.103,1.05169,8.62386,1,,lines.csv,
relation/3710281:a-380,B576,B706,52104.69,380,1698.103,1.563141,12.817754,1,,lines.csv,
relation/3710286:b-380,B706,B677,31530.11,380,1698.103,0.945903,7.756407,1,,lines.csv,
relation/3730414-220,B408,B436,30191.6,220,491.556,1.811496,9.087672,1,,lines.csv,
relation/3730416-380,B757,B685,56653.39,380,1698.103,1.699602,13.936734,1,,lines.csv,
relation/3730420-380,B437,B760,85463.25,380,1698.103,2.563898,21.02396,1,,lines.csv,
relation/3730421-380,B290,B760,47792.35,380,1698.103,1.43377,11.756918,1,,lines.csv,
relation/3730422-380,B437,B290,37698.88,380,1698.103,1.130966,9.273924,1,,lines.csv,
relation/3732172:b-380,B482,B328,100138.4,380,3396.205,1.502076,12.317023,2,,lines.csv,
relation/3732383-380,B483,B284,56048.64,380,1698.103,1.681459,13.787965,1,,lines.csv,
relation/3732384-380,B285,B486,35572.23,380,1698.103,1.067167,8.750769,1,,lines.csv,
relation/3732385-380,B285,B485,49726.62,380,1698.103,1.491799,12.232749,1,,lines.csv,
relation/3732386-380,B486,B483,58068.89,380,1698.103,1.742067,14.284947,1,,lines.csv,
relation/3732387-380,B485,B483,43451.97,380,1698.103,1.303559,10.689185,1,,lines.csv,
relation/3732388:b-380,B483,B30,37116.75,380,1698.103,1.113502,9.13072,1,,lines.csv,
relation/3732388:c-380,B30,B747,13204.02,380,1698.103,0.396121,3.248189,1,,lines.csv,
relation/3732389-380,B747,B558,88161.03,380,1698.103,2.644831,21.687613,1,,lines.csv,
relation/3732390:b-380,B709,B499,63176.96,380,3396.205,0.947654,7.770766,2,,lines.csv,
relation/3738981-380,B757,B685,56653.39,380,1698.103,1.699602,13.936734,1,,lines.csv,
relation/3738982-380,B760,B757,36574.52,380,1698.103,1.097236,8.997332,1,,lines.csv,
relation/3739951:b-220,B439,B601,27720.05,220,491.556,1.663203,8.343735,1,,lines.csv,
relation/3739953-220,B395,B601,158541.45,220,491.556,9.512487,47.720976,1,,lines.csv,
relation/3739954-220,B395,B601,158541.45,220,491.556,9.512487,47.720976,1,,lines.csv,
relation/3739955-380,B368,B509,8104.419999999999,380,1698.103,0.243133,1.993687,1,,lines.csv,
relation/3742235-150,B752,B31,10132.57,150,167.576,1.203749,3.951702,1,,lines.csv,
relation/3742237-220,B436,B282,17820.07,220,491.556,1.069204,5.363841,1,,lines.csv,
relation/3742238-220,B390,B404,32221.28,220,491.556,1.933277,9.698605,1,,lines.csv,
relation/3742239-220,B769,B395,66147.72,220,491.556,3.968863,19.910464,1,,lines.csv,
relation/3742240-220,B769,B395,66147.72,220,491.556,3.968863,19.910464,1,,lines.csv,
relation/3742241-380,B770,B566,77800.76,380,1698.103,2.334023,19.138987,1,,lines.csv,
relation/3742242-380,B770,B566,77800.76,380,1698.103,2.334023,19.138987,1,,lines.csv,
relation/3749524-380,B574,B580,6548.7,380,3396.205,0.09823,0.80549,2,,lines.csv,
relation/3749525-380,B580,B318,5485.13,380,5094.308,0.054851,0.449781,3,,lines.csv,
relation/3749527:a-380,B572,B651,7523.04,380,3396.205,0.112846,0.925334,2,,lines.csv,
relation/3749845-220,B708,B487,45675.32,220,983.112,1.37026,6.874136,2,,lines.csv,
relation/3749846-220,B326,B487,73308.47,220,983.112,2.199254,11.032925,2,,lines.csv,
relation/3749847-220,B326,B553,62785.01,220,491.556,3.767101,18.898288,1,,lines.csv,
relation/3749848-220,B489,B487,24304.67,220,491.556,1.45828,7.315706,1,,lines.csv,
relation/3749850:a-220,B325,B455,32619.03,220,491.556,1.957142,9.818328,1,,lines.csv,
relation/3749851-220,B327,B325,39976.44,220,491.556,2.398586,12.032908,1,,lines.csv,
relation/3749852-380,B328,B516,76178.09,380,1698.103,2.285343,18.73981,1,,lines.csv,
relation/3749853:a-380,B678,B516,18012.26,380,1698.103,0.540368,4.431016,1,,lines.csv,
relation/3749854:a-380,B678,B516,18012.26,380,1698.103,0.540368,4.431016,1,,lines.csv,
relation/3749855-380,B516,B709,61278.46,380,5094.308,0.612785,5.024834,3,,lines.csv,
relation/3756855:a-220,B462,B587,73562.69,220,983.112,2.206881,11.071185,2,,lines.csv,
relation/3763835-220,B495,B466,1749.59,220,491.556,0.104975,0.526627,1,,lines.csv,
relation/377770-380,B410,B453,17010.18,380,1698.103,0.510305,4.184504,1,,lines.csv,
relation/3782492-380,B736,B415,6888.99,380,1698.103,0.20667,1.694692,1,,lines.csv,
relation/3782493-380,B736,B415,6888.99,380,1698.103,0.20667,1.694692,1,,lines.csv,
relation/3803496:b-220,B738,B374,20548.45,220,983.112,0.616454,3.092542,2,,lines.csv,
relation/3805411-380,B483,B284,56048.64,380,1698.103,1.681459,13.787965,1,,lines.csv,
relation/3861963-220,B553,B561,35781.99,220,491.556,2.146919,10.770379,1,,lines.csv,
relation/3861964-220,B297,B649,3545.92,220,491.556,0.212755,1.067322,1,,lines.csv,
relation/3861966-220,B598,B599,2579.6,220,491.556,0.154776,0.77646,1,,lines.csv,
relation/3862869-380,B477,B413,5361.97,380,1698.103,0.160859,1.319045,1,,lines.csv,
relation/3862871:a-380,B618,B665,13174.53,380,1698.103,0.395236,3.240934,1,,lines.csv,
relation/3862874:b-220,B450,B272,26627.47,220,491.556,1.597648,8.014868,1,,lines.csv,
relation/3866868-220,B332,B32,5795.41,220,491.556,0.347725,1.744418,1,,lines.csv,
relation/3866869-220,B332,B481,91143.19,220,491.556,5.468591,27.4341,1,,lines.csv,
relation/3866871-380,B642,B681,29871.45,380,1698.103,0.896144,7.348377,1,,lines.csv,
relation/3866872-380,B642,B333,113405.92,380,1698.103,3.402178,27.897856,1,,lines.csv,
relation/3866873-380,B681,B333,84126.69,380,1698.103,2.523801,20.695166,1,,lines.csv,
relation/3866874-380,B333,B285,2934.93,380,1698.103,0.088048,0.721993,1,,lines.csv,
relation/3866875:b-380,B333,B285,2934.66,380,1698.103,0.08804,0.721926,1,,lines.csv,
relation/3873611-380,B355,B512,31990.97,380,1698.103,0.959729,7.869779,1,,lines.csv,
relation/3873615-220,B547,B438,10966.64,220,491.556,0.657998,3.300959,1,,lines.csv,
relation/3874448-380,B549,B483,80980.93,380,1698.103,2.429428,19.921309,1,,lines.csv,
relation/3874449-380,B285,B482,88172.77,380,1698.103,2.645183,21.690501,1,,lines.csv,
relation/3874450-380,B285,B482,88172.77,380,1698.103,2.645183,21.690501,1,,lines.csv,
relation/3874451-380,B482,B484,81200.71,380,1698.103,2.436021,19.975375,1,,lines.csv,
relation/3874452-380,B482,B549,27270.71,380,1698.103,0.818121,6.708595,1,,lines.csv,
relation/3883856-380,B458,B523,26152.0,380,1698.103,0.78456,6.433392,1,,lines.csv,
relation/3883857-380,B33,B523,5419.85,380,1698.103,0.162596,1.333283,1,,lines.csv,
relation/3883858-380,B523,B522,48344.04,380,1698.103,1.450321,11.892634,1,,lines.csv,
relation/3885010-380,B359,B454,50625.31,380,1698.103,1.518759,12.453826,1,,lines.csv,
relation/3885011:a-380,B454,B642,19727.5,380,1698.103,0.591825,4.852965,1,,lines.csv,
relation/3885012:a-380,B675,B611,50753.35,380,3396.205,0.7613,6.242662,2,,lines.csv,
relation/3885041-380,B754,B755,43400.5,380,1698.103,1.302015,10.676523,1,,lines.csv,
relation/3885042-380,B754,B755,43400.5,380,1698.103,1.302015,10.676523,1,,lines.csv,
relation/3885043-380,B396,B399,93930.27,380,1698.103,2.817908,23.106846,1,,lines.csv,
relation/3885044-380,B396,B399,93930.27,380,1698.103,2.817908,23.106846,1,,lines.csv,
relation/3885045-380,B277,B755,50604.91,380,1698.103,1.518147,12.448808,1,,lines.csv,
relation/3885046-380,B396,B755,121520.82,380,1698.103,3.645625,29.894122,1,,lines.csv,
relation/3888200:a-220,B354,B547,34316.9,220,491.556,2.059014,10.329387,1,,lines.csv,
relation/3888202:b-220,B547,B34,33216.91,220,491.556,1.993015,9.99829,1,,lines.csv,
relation/3889743:b-220,B610,B538,24794.47,220,491.556,1.487668,7.463135,1,,lines.csv,
relation/3889744:b-220,B538,B529,19380.0,220,491.556,1.1628,5.83338,1,,lines.csv,
relation/3889745-220,B577,B688,18444.3,220,491.556,1.106658,5.551734,1,,lines.csv,
relation/3916522:b-380,B43,B736,6677.79,380,1698.103,0.200334,1.642736,1,,lines.csv,
relation/3918228-220,B275,B586,12322.28,220,491.556,0.739337,3.709006,1,,lines.csv,
relation/3918229:b-220,B587,B275,78273.71,220,491.556,4.696423,23.560387,1,,lines.csv,
relation/3937928-220,B35,B36,6505.59,220,491.556,0.390335,1.958183,1,,lines.csv,
relation/3943779-220,B543,B321,48699.62,220,491.556,2.921977,14.658586,1,,lines.csv,
relation/3943780:c-220,B481,B326,38352.12,220,983.112,1.150564,5.771994,2,,lines.csv,
relation/3952096-220,B606,B272,15008.29,220,491.556,0.900497,4.517495,1,,lines.csv,
relation/3952640-155,B562,B39,29961.83,155,173.162,3.559465,11.685114,1,,lines.csv,
relation/3989160-220,B385,B1,12294.89,220,983.112,0.368847,1.850381,2,,lines.csv,
relation/3989163:c-380,B331,B335,45420.21,380,1698.103,1.362606,11.173372,1,,lines.csv,
relation/4430965:b-380,B339,B355,26532.0,380,1698.103,0.79596,6.526872,1,,lines.csv,
relation/4441426-220,B544,B373,2326.13,220,983.112,0.069784,0.350083,2,,lines.csv,
relation/445559:a-380,B361,B40,8130.01,380,1698.103,0.2439,1.999982,1,,lines.csv,
relation/445559:b-380,B40,B475,6933.97,380,1698.103,0.208019,1.705757,1,,lines.csv,
relation/4713421-220,B436,B282,17820.07,220,491.556,1.069204,5.363841,1,,lines.csv,
relation/4815174-220,B408,B436,30191.6,220,491.556,1.811496,9.087672,1,,lines.csv,
relation/4819879:b-380,B463,B382,120852.32,380,1698.103,3.62557,29.729671,1,,lines.csv,
relation/5207092-380,B458,B523,26152.0,380,1698.103,0.78456,6.433392,1,,lines.csv,
relation/5247406:a-220,B409,B455,39419.37,220,491.556,2.365162,11.86523,1,,lines.csv,
relation/5247533-380,B445,B286,28457.48,380,1698.103,0.853724,7.00054,1,,lines.csv,
relation/5247596-380,B382,B702,32926.65,380,1698.103,0.9878,8.099956,1,,lines.csv,
relation/5247617-380,B410,B453,17010.18,380,1698.103,0.510305,4.184504,1,,lines.csv,
relation/5334826-220,B543,B321,48699.62,220,491.556,2.921977,14.658586,1,,lines.csv,
relation/5374815-380,B578,B315,5555.46,380,1698.103,0.166664,1.366643,1,,lines.csv,
relation/5486612-380,B368,B483,56679.87,380,1698.103,1.700396,13.943248,1,,lines.csv,
relation/5497488:a-380,B786,B41,24592.87,380,1698.103,0.737786,6.049846,1,,lines.csv,
relation/5497488:b-380,B41,B42,3851.22,380,1698.103,0.115537,0.9474,1,,lines.csv,
relation/5497488:c-380,B42,B476,25253.15,380,1698.103,0.757595,6.212275,1,,lines.csv,
relation/5497490:a-380,B786,B41,24592.87,380,1698.103,0.737786,6.049846,1,,lines.csv,
relation/5497490:b-380,B41,B42,3851.22,380,1698.103,0.115537,0.9474,1,,lines.csv,
relation/5497490:c-380,B42,B476,25253.15,380,1698.103,0.757595,6.212275,1,,lines.csv,
relation/5507286-380,B770,B654,104366.41,380,1698.103,3.130992,25.674137,1,,lines.csv,
relation/5581798:a-380,B755,B56,6874.76,380,1698.103,0.206243,1.691191,1,,lines.csv,
relation/5581799:a-380,B755,B56,6684.77,380,1698.103,0.200543,1.644453,1,,lines.csv,
relation/5581800:a-380,B755,B56,6584.88,380,1698.103,0.197546,1.61988,1,,lines.csv,
relation/5581801:a-380,B755,B56,6684.77,380,1698.103,0.200543,1.644453,1,,lines.csv,
relation/5581802:a-380,B755,B56,6584.88,380,1698.103,0.197546,1.61988,1,,lines.csv,
relation/5581803:a-380,B755,B56,6874.76,380,1698.103,0.206243,1.691191,1,,lines.csv,
relation/5603845:a-380,B734,B736,9710.15,380,1698.103,0.291304,2.388697,1,,lines.csv,
relation/5603846:a-380,B734,B43,2970.85,380,1698.103,0.089126,0.730829,1,,lines.csv,
relation/5603846:b-380,B43,B736,6691.73,380,1698.103,0.200752,1.646166,1,,lines.csv,
relation/5805467-380,B484,B483,21491.15,380,1698.103,0.644734,5.286823,1,,lines.csv,
relation/6463658-380,B545,B286,28105.61,380,1698.103,0.843168,6.91398,1,,lines.csv,
relation/67129-220,B539,B448,42584.81,220,491.556,2.555089,12.818028,1,,lines.csv,
relation/67131-380,B540,B465,72680.1,380,1698.103,2.180403,17.879305,1,,lines.csv,
relation/67585-380,B545,B286,28105.61,380,1698.103,0.843168,6.91398,1,,lines.csv,
relation/6771820-380,B315,B675,9778.08,380,1698.103,0.293342,2.405408,1,,lines.csv,
relation/6771821-380,B315,B675,9778.08,380,1698.103,0.293342,2.405408,1,,lines.csv,
relation/69488:a-220,B409,B455,39419.37,220,491.556,2.365162,11.86523,1,,lines.csv,
relation/7054743:b-220,B481,B489,92914.85,220,983.112,2.787446,13.983685,2,,lines.csv,
relation/71281-380,B766,B458,36261.54,380,1698.103,1.087846,8.920339,1,,lines.csv,
relation/7191351:a-380,B368,B770,56208.44,380,1698.103,1.686253,13.827276,1,,lines.csv,
relation/7854464-380,B760,B757,36574.52,380,1698.103,1.097236,8.997332,1,,lines.csv,
relation/8470162-220,B547,B438,10966.64,220,491.556,0.657998,3.300959,1,,lines.csv,
relation/8539040:b-380,B671,B658,52103.12,380,1698.103,1.563094,12.817368,1,,lines.csv,
relation/86589-380,B314,B732,5961.87,380,1698.103,0.178856,1.46662,1,,lines.csv,
relation/902595-380,B566,B763,51123.82,380,1698.103,1.533715,12.57646,1,,lines.csv,
relation/902597-380,B550,B754,54063.22,380,1698.103,1.621897,13.299552,1,,lines.csv,
relation/904158-380,B597,B522,117075.7,380,1698.103,3.512271,28.800622,1,,lines.csv,
relation/904159-380,B597,B566,39028.87,380,1698.103,1.170866,9.601102,1,,lines.csv,
relation/904160-380,B597,B566,39028.87,380,1698.103,1.170866,9.601102,1,,lines.csv,
relation/907513-380,B566,B629,102322.09,380,1698.103,3.069663,25.171234,1,,lines.csv,
relation/912407-380,B756,B658,55658.63,380,1698.103,1.669759,13.692023,1,,lines.csv,
relation/919059-380,B573,B399,21896.69,380,1698.103,0.656901,5.386586,1,,lines.csv,
relation/919060-380,B573,B399,21896.69,380,1698.103,0.656901,5.386586,1,,lines.csv,
relation/919119-380,B755,B573,62107.52,380,1698.103,1.863226,15.27845,1,,lines.csv,
relation/919121-380,B755,B573,62107.52,380,1698.103,1.863226,15.27845,1,,lines.csv,
relation/941141-220,B449,B397,2051.9,220,491.556,0.123114,0.617622,1,,lines.csv,
relation/943999-220,B529,B45,11808.9,220,491.556,0.708534,3.554479,1,,lines.csv,
relation/945143:b-220,B610,B529,31810.1,220,491.556,1.908606,9.57484,1,,lines.csv,
relation/962121-380,B692,B609,74219.47,380,1698.103,2.226584,18.25799,1,,lines.csv,
relation/962122-380,B692,B782,60259.33,380,1698.103,1.80778,14.823795,1,,lines.csv,
way/1002012655-380,B772,B773,3123.78,380,3396.205,0.046857,0.384225,2,,lines.csv,
way/1031520139-220,B449,B696,4780.34,220,983.112,0.14341,0.719441,2,,lines.csv,
way/103737860-220,B735,B414,2890.58,220,1966.224,0.043359,0.217516,4,,lines.csv,
way/103737868-380,B736,B162,3466.1,380,3396.205,0.051991,0.42633,2,,lines.csv,
way/107175828-220,B50,B52,1246.11,220,491.556,0.074767,0.375079,1,,lines.csv,
way/107175828-380,B51,B53,1246.07,380,1698.103,0.037382,0.306533,1,,lines.csv,
way/107175832-220,B138,B50,2294.17,220,983.112,0.068825,0.345273,2,,lines.csv,
way/107175832-380,B139,B51,2334.02,380,3396.205,0.03501,0.287084,2,,lines.csv,
way/107271555-220,B52,B474,3168.53,220,983.112,0.095056,0.476864,2,,lines.csv,
way/107271555-380,B53,B262,3177.04,380,3396.205,0.047656,0.390776,2,,lines.csv,
way/107271567-220,B472,B48,3675.9,220,491.556,0.220554,1.106446,1,,lines.csv,
way/107271567-380,B473,B49,3663.01,380,1698.103,0.10989,0.9011,1,,lines.csv,
way/108388740-380,B520,B635,24380.15,380,3396.205,0.365702,2.998758,2,,lines.csv,
way/108388744-380,B635,B54,15128.75,380,3396.205,0.226931,1.860836,2,,lines.csv,
way/108526453-380,B723,B54,1484.31,380,3396.205,0.022265,0.18257,2,,lines.csv,
way/108526459-380,B54,B270,4491.75,380,1698.103,0.134752,1.10497,1,,lines.csv,
way/108526478-380,B54,B723,1527.22,380,1698.103,0.045817,0.375696,1,,lines.csv,
way/109505609-380,B2,B304,3055.66,380,1698.103,0.09167,0.751692,1,,lines.csv,
way/1104699062-380,B57,B287,2488.47,380,3396.205,0.037327,0.306082,2,,lines.csv,
way/1104914089-380,B58,B431,2185.02,380,3396.205,0.032775,0.268757,2,,lines.csv,
way/1104914090-380,B221,B58,7256.03,380,1698.103,0.217681,1.784983,1,,lines.csv,
way/111499706-380,B508,B175,4601.18,380,3396.205,0.069018,0.565945,2,,lines.csv,
way/1118659219-220,B434,B61,3628.14,220,491.556,0.217688,1.09207,1,,lines.csv,
way/1118659219-380,B435,B62,3628.87,380,1698.103,0.108866,0.892702,1,,lines.csv,
way/1119376851-380,B494,B60,10762.26,380,3396.205,0.161434,1.323758,2,,lines.csv,
way/1120289993-380,B65,B447,3778.88,380,5094.308,0.037789,0.309868,3,,lines.csv,
way/113135861-220,B134,B785,29405.11,220,983.112,0.882153,4.425469,2,,lines.csv,
way/113563131-220,B694,B184,2496.26,220,1966.224,0.037444,0.187844,4,,lines.csv,
way/114377991-220,B781,B67,1477.4,220,1474.668,0.029548,0.148232,3,,lines.csv,
way/1151967274-380,B69,B767,14398.53,380,3396.205,0.215978,1.771019,2,,lines.csv,
way/115569716-220,B742,B261,24087.19,220,983.112,0.722616,3.625122,2,,lines.csv,
way/116260546-220,B350,B128,2757.44,220,1966.224,0.041362,0.207497,4,,lines.csv,
way/118436808-380,B146,B338,13752.1,380,3396.205,0.206282,1.691508,2,,lines.csv,
way/1186186271-380,B42,B41,2663.12,380,3396.205,0.039947,0.327564,2,,lines.csv,
way/1205463623:a-220,B657,B256,78643.46,220,491.556,4.718608,23.671681,1,,lines.csv,
way/121199247-380,B304,B214,4292.9,380,1698.103,0.128787,1.056053,1,,lines.csv,
way/1222462381-220,B758,B192,2643.76,220,491.556,0.158626,0.795772,1,,lines.csv,
way/123170766-220,B212,B776,1611.67,220,983.112,0.04835,0.242556,2,,lines.csv,
way/1241983642-380,B71,B747,5874.53,380,3396.205,0.088118,0.722567,2,,lines.csv,
way/1244951664-380,B558,B73,34742.07,380,3396.205,0.521131,4.273275,2,,lines.csv,
way/128277649-380,B201,B284,51779.57,380,3396.205,0.776694,6.368887,2,,lines.csv,
way/128461828:b-380,B412,B617,15327.94,380,3396.205,0.229919,1.885337,2,,lines.csv,
way/128478125-220,B263,B376,10594.17,220,983.112,0.317825,1.594423,2,,lines.csv,
way/128478125-380,B265,B74,10604.35,380,3396.205,0.159065,1.304335,2,,lines.csv,
way/128975976-220,B570,B606,48336.4,220,983.112,1.450092,7.274628,2,,lines.csv,
way/1293441399-220,B75,B243,2844.2,220,491.556,0.170652,0.856104,1,,lines.csv,
way/1293441403-220,B243,B75,2849.43,220,491.556,0.170966,0.857678,1,,lines.csv,
way/132682735-220,B86,B478,9632.85,220,983.112,0.288986,1.449744,2,,lines.csv,
way/1340163909-380,B73,B76,2834.53,380,1698.103,0.085036,0.697294,1,,lines.csv,
way/1359558141-380,B131,B77,2586.35,380,1698.103,0.07759,0.636242,1,,lines.csv,
way/1359558143-380,B77,B131,2666.87,380,1698.103,0.080006,0.65605,1,,lines.csv,
way/1373311245-380,B319,B80,10149.14,380,3396.205,0.152237,1.248344,2,,lines.csv,
way/141161434-380,B194,B81,3368.71,380,3396.205,0.050531,0.414351,2,,lines.csv,
way/142169891-220,B377,B388,11901.32,220,983.112,0.35704,1.791149,2,,lines.csv,
way/1425569984-220,B324,B790,1771.31,220,983.112,0.053139,0.266582,2,,lines.csv,
way/143100816-220,B481,B268,111267.23,220,491.556,6.676034,33.491436,1,,lines.csv,
way/1432088594-380,B83,B770,16876.27,380,3396.205,0.253144,2.075781,2,,lines.csv,
way/1432110827-380,B84,B83,9269.77,380,3396.205,0.139047,1.140182,2,,lines.csv,
way/1432110828-380,B85,B84,10605.04,380,3396.205,0.159076,1.30442,2,,lines.csv,
way/143575225-380,B293,B322,6724.67,380,1698.103,0.20174,1.654269,1,,lines.csv,
way/143855350-380,B87,B527,9688.72,380,1698.103,0.290662,2.383425,1,,lines.csv,
way/143901743-220,B400,B89,6395.45,220,491.556,0.383727,1.92503,1,,lines.csv,
way/145129280-220,B392,B90,4005.11,220,491.556,0.240307,1.205538,1,,lines.csv,
way/145129282-220,B417,B392,3232.59,220,983.112,0.096978,0.486505,2,,lines.csv,
way/1451337852-220,B91,B407,2683.31,220,983.112,0.080499,0.403838,2,,lines.csv,
way/1458852756-380,B93,B747,33200.22,380,1698.103,0.996007,8.167254,1,,lines.csv,
way/146633582-380,B94,B269,4639.09,380,1698.103,0.139173,1.141216,1,,lines.csv,
way/147534818-380,B95,B670,12475.65,380,3396.205,0.187135,1.534505,2,,lines.csv,
way/148211531:b-380,B201,B366,3604.1,380,1698.103,0.108123,0.886609,1,,lines.csv,
way/148474410-380,B465,B646,28907.25,380,3396.205,0.433609,3.555592,2,,lines.csv,
way/150801571-380,B375,B97,5254.6,380,1698.103,0.157638,1.292632,1,,lines.csv,
way/151469596-380,B98,B452,52882.39,380,3396.205,0.793236,6.504534,2,,lines.csv,
way/151469597-380,B465,B98,1913.84,380,3396.205,0.028708,0.235402,2,,lines.csv,
way/151967297-380,B101,B639,11671.14,380,3396.205,0.175067,1.43555,2,,lines.csv,
way/152297163-220,B346,B164,2905.34,220,983.112,0.08716,0.437254,2,,lines.csv,
way/152403718-220,B102,B103,2463.08,220,983.112,0.073892,0.370694,2,,lines.csv,
way/152924506-220,B104,B386,5499.27,220,1966.224,0.082489,0.41382,4,,lines.csv,
way/152924520-220,B104,B369,7692.0,220,983.112,0.23076,1.157646,2,,lines.csv,
way/153089334-220,B402,B107,6527.54,220,491.556,0.391652,1.96479,1,,lines.csv,
way/156350633-220,B202,B108,27390.27,220,983.112,0.821708,4.122236,2,,lines.csv,
way/156673647-380,B310,B109,4572.43,380,1698.103,0.137173,1.124818,1,,lines.csv,
way/156960646-380,B755,B110,38614.26,380,3396.205,0.579214,4.749554,2,,lines.csv,
way/156960657-380,B110,B676,7563.84,380,3396.205,0.113458,0.930352,2,,lines.csv,
way/157332863-380,B228,B403,17341.98,380,3396.205,0.26013,2.133064,2,,lines.csv,
way/157332865-380,B228,B762,4577.79,380,3396.205,0.068667,0.563068,2,,lines.csv,
way/157807786-380,B704,B654,3484.89,380,3396.205,0.052273,0.428641,2,,lines.csv,
way/159712911-220,B111,B174,8001.239999999999,220,983.112,0.240037,1.204187,2,,lines.csv,
way/161242257-220,B666,B347,5663.92,220,983.112,0.169918,0.85242,2,,lines.csv,
way/167609849-380,B540,B143,9025.9,380,5094.308,0.090259,0.740124,3,,lines.csv,
way/167854736-220,B305,B628,61145.26,220,983.112,1.834358,9.202362,2,,lines.csv,
way/169240672-380,B246,B364,6130.41,380,3396.205,0.091956,0.75404,2,,lines.csv,
way/169244947-220,B113,B446,4397.71,220,983.112,0.131931,0.661855,2,,lines.csv,
way/172819236-380,B110,B636,45376.72,380,3396.205,0.680651,5.581337,2,,lines.csv,
way/17673603-380,B114,B115,21511.89,380,3396.205,0.322678,2.645962,2,,lines.csv,
way/186397898-380,B675,B182,5107.98,380,6792.41,0.03831,0.314141,4,,lines.csv,
...